*Heading
*Preprint, echo=NO, model=NO, history=NO, contact=NO
*Node
      1,           0.,           0.
      2,           0.,           1.
      3,           1.,           1.
      4,           1.,           0.
*Element, type=T2D2
1, 1, 2
2, 2, 3
3, 3, 4
4, 4, 1
5, 1, 3
6, 2, 4
*Nset, nset=ALL, generate
 1,  4,  1
*Elset, elset=ALL, generate
 1,  8,  1
*Solid Section, elset=ALL, material=MAT
1.,
*System
*Nset, nset=FIXND
 1, 4
*Nset, nset=CFNDH
 3,
*Nset, nset=CFNDV
 2,
*Material, name=MAT
*Elastic
1., 0.3
*Boundary
FIXND, PINNED
*Step
*MATRIX GENERATE,STIFFNESS,LOAD,ELEMENT BY ELEMENT
*MATRIX OUTPUT,FORMAT=MATRIX INPUT,STIFFNESS,LOAD
*Cload
CFNDV, 2, 2.
*Cload
CFNDH, 1, 1.
*Boundary
CFNDV, 2, 2, 1.
*End Step
*Step
*MATRIX GENERATE,STIFFNESS,LOAD,ELEMENT BY ELEMENT
*MATRIX OUTPUT,FORMAT=COORDINATE,STIFFNESS,LOAD
*Cload
CFNDV, 2, 2.
*Cload
CFNDH, 1, 1.
*Boundary
CFNDV, 2, 2, 1.
*End Step
*Step
*MATRIX GENERATE,STIFFNESS,LOAD
*MATRIX OUTPUT,FORMAT=MATRIX INPUT,STIFFNESS,LOAD
*Cload
CFNDV, 2, 2.
*Cload
CFNDH, 1, 1.
*Boundary
CFNDV, 2, 2, 1.
*End Step
*Step
*MATRIX GENERATE,STIFFNESS,LOAD
*MATRIX OUTPUT,FORMAT=COORDINATE,STIFFNESS,LOAD
*Cload
CFNDV, 2, 2.
*Cload
CFNDH, 1, 1.
*Boundary
CFNDV, 2, 2, 1.
*End Step
*Step
*STATIC
1, 1
*Cload
CFNDV, 2, 2.
*Cload
CFNDH, 1, 1.
*Boundary
CFNDV, 2, 2, 1.
*Restart, write, frequency=0
*Output, field, variable=PRESELECT
*Output, history, variable=PRESELECT
*FILE FORMAT, ASCII
*ELEMENT MATRIX OUTPUT, ELSET=ALL, FILE NAME=STIFFNESS,OUTPUT FILE=USER DEFINED,STIFFNESS=YES,DLOAD=YES
*End Step
